powerflow/Codes/PF_Formulation/resultados_csv/19/test_system/barras.csv
caso,script,bus_id,vm_pu,va_rad,pd_pu,qd_pu,pg_pu,qg_pu,bus_type
test_system.pwf,19,23,0.9974648760919967,0.0,0.0,0.0,0.3484262594699381,-0.061759598513057415,3
test_system.pwf,19,24,0.9945822451283447,-0.22911655507648743,0.34600000000000003,0.069,0.0,0.0,1
test_system.pwf,19,26,1.0086054804375204,-0.12562708546887735,0.0,0.0,0.0,0.0,1
test_system.pwf,19,29,1.001572633307292,-0.021799434739680792,0.0,0.0,0.0,0.0,1
